ckt7_Mon_rfi_01_der050.csv
fault_bus,fault_type,fault_R_ohm,Va_mag_pu,Va_ang_deg,Vb_mag_pu,Vb_ang_deg,Vc_mag_pu,Vc_ang_deg,Ia_mag_A,Ia_ang_deg,Ib_mag_A,Ib_ang_deg,Ic_mag_A,Ic_ang_deg
318412,SLG,0,0.131045,-112.1437,1.04742,-149.8912,1.04694,89.7557,942307.4202,-112.1581,2139.9249,31.5533,1549.2452,-93.6579
318412,SLG,10,1.048963,-30.1296,1.048965,-150.0835,1.048985,89.9157,978.8865,142.7955,1761.5072,25.9935,1721.1252,-94.2545
318412,SLG,20,1.048969,-30.1068,1.048966,-150.0835,1.048983,89.9158,1354.2307,144.7851,1761.6208,25.9884,1721.2028,-94.2487
318412,SLG,30,1.048971,-30.0993,1.048967,-150.0835,1.048983,89.9158,1479.5811,145.2264,1761.6588,25.9867,1721.2287,-94.2468
318412,SLG,40,1.048972,-30.0955,1.048967,-150.0835,1.048983,89.9158,1542.2842,145.4206,1761.6777,25.9858,1721.2416,-94.2458
318412,LL,0,0.130775,-112.3285,0.130769,128.0449,1.04537,89.9258,940594.4825,-112.3088,941057.9435,128.0053,1558.2752,-87.1446
318412,LL,10,1.048965,-30.1297,1.048953,-150.1289,1.048982,89.9157,978.7459,142.7744,1009.7634,23.017,1720.8971,-94.2441
318412,LL,20,1.04897,-30.1069,1.04896,-150.1062,1.048982,89.9157,1354.1548,144.7776,1385.3297,24.8964,1721.0888,-94.2435
318412,LL,30,1.048971,-30.0993,1.048963,-150.0986,1.048982,89.9158,1479.5296,145.2218,1510.7355,25.3176,1721.1526,-94.2433
318412,LL,40,1.048972,-30.0955,1.048964,-150.0948,1.048982,89.9158,1542.2454,145.4172,1573.4647,25.5035,1721.1846,-94.2432
318412,3LG,0,0.130526,-112.1428,0.130527,127.8573,0.130527,7.857,939336.1171,-112.1435,939333.1921,127.8566,939337.6178,7.8565
318412,3LG,10,1.048962,-30.1297,1.048956,-150.1291,1.04897,89.8702,978.507,142.7919,1009.6215,22.9966,969.5851,-97.5266
318412,3LG,20,1.048969,-30.1069,1.048962,-150.1063,1.048976,89.893,1354.04,144.7841,1385.2533,24.8891,1344.9355,-95.4324
318412,3LG,30,1.048971,-30.0993,1.048964,-150.0986,1.048978,89.9006,1479.4536,145.2258,1510.6839,25.3131,1470.3108,-94.9695
318412,3LG,40,1.048971,-30.0955,1.048965,-150.0948,1.048979,89.9044,1542.1886,145.4201,1573.4258,25.5003,1533.0292,-94.7661
243937,SLG,0,1.007451,-36.4294,1.049791,-150.0226,1.04789,89.9201,108002.9524,-52.7023,2994.9409,6.081,2339.9814,-64.3729
243937,SLG,10,1.048976,-30.13,1.048968,-150.0829,1.048974,89.9156,972.9116,142.0422,1771.3312,25.9062,1718.5372,-93.9323
243937,SLG,20,1.048976,-30.1071,1.048968,-150.0832,1.048978,89.9157,1349.8483,144.4968,1766.5495,25.9447,1719.8916,-94.0873
243937,SLG,30,1.048975,-30.0995,1.048968,-150.0833,1.048979,89.9158,1476.3631,145.0472,1764.9482,25.9576,1720.3507,-94.1391
243937,SLG,40,1.048975,-30.0956,1.048968,-150.0833,1.04898,89.9158,1539.7609,145.2904,1764.1461,25.964,1720.5817,-94.165
243937,LL,0,0.904676,-42.5135,0.851835,-150.349,1.048799,89.9436,228913.9403,-69.8797,177574.8597,121.0349,2374.6951,-91.181
243937,LL,10,1.048971,-30.1304,1.048967,-150.129,1.048974,89.9161,968.0325,142.3736,1011.0028,22.3218,1727.9488,-94.0092
243937,LL,20,1.048972,-30.1073,1.048969,-150.1063,1.048978,89.916,1347.9269,144.6569,1385.1294,24.5884,1724.6257,-94.125
243937,LL,30,1.048973,-30.0996,1.048969,-150.0987,1.04898,89.9159,1475.1949,145.1527,1510.4255,25.1183,1723.5131,-94.1641
243937,LL,40,1.048973,-30.0957,1.048968,-150.0949,1.04898,89.9159,1538.9268,145.3691,1573.1665,25.356,1722.9558,-94.1837
243937,3LG,0,0.819579,-37.6921,0.819573,-157.6937,0.819588,82.3085,233584.1245,-95.1192,233580.6921,144.8804,233581.4643,24.8817
243937,3LG,10,1.048968,-30.13,1.048962,-150.1293,1.048976,89.87,975.3282,142.4564,1006.1813,22.6508,966.5511,-97.8792
243937,3LG,20,1.048972,-30.107,1.048965,-150.1064,1.04898,89.8929,1352.1523,144.6474,1383.2324,24.748,1343.1129,-95.5751
243937,3LG,30,1.048973,-30.0994,1.048966,-150.0987,1.048981,89.9005,1478.1339,145.1391,1509.2748,25.2237,1469.0334,-95.0598
243937,3LG,40,1.048973,-30.0956,1.048966,-150.0949,1.048981,89.9044,1541.1762,145.3566,1572.346,25.4347,1532.0482,-94.8322
157347,SLG,0,1.015534,-31.6345,1.049615,-150.0536,1.048474,89.9267,38172.343,-82.1624,2332.2581,9.6408,2051.5287,-80.7803
157347,SLG,10,1.048984,-30.1298,1.048962,-150.0827,1.048974,89.9152,977.5544,141.6528,1774.111,26.1053,1711.9207,-93.9549
157347,SLG,20,1.048982,-30.1071,1.048965,-150.0831,1.048978,89.9155,1351.297,144.2469,1767.9458,26.0464,1716.5348,-94.0996
157347,SLG,30,1.04898,-30.0995,1.048966,-150.0832,1.048979,89.9156,1477.1267,144.8728,1765.88,26.0258,1718.1019,-94.1476
157347,SLG,40,1.048979,-30.0956,1.048966,-150.0833,1.04898,89.9157,1540.257,145.1572,1764.8453,26.0154,1718.891,-94.1715
157347,LL,0,1.000853,-33.0105,0.98755,-150.813,1.049015,89.9408,62706.1441,-74.422,56117.7578,130.3873,2191.6454,-96.0136
157347,LL,10,1.048983,-30.1304,1.04897,-150.1288,1.048968,89.9159,969.4681,141.7574,1013.9927,22.1822,1724.1221,-93.8312
157347,LL,20,1.04898,-30.1074,1.048973,-150.1062,1.048975,89.9159,1346.85,144.3572,1386.8613,24.4498,1722.6415,-94.0345
157347,LL,30,1.048978,-30.0997,1.048972,-150.0986,1.048977,89.9158,1474.0758,144.9545,1511.6289,25.0156,1722.1738,-94.1034
157347,LL,40,1.048978,-30.0958,1.048971,-150.0948,1.048979,89.9158,1537.9367,145.2211,1574.0873,25.2756,1721.9451,-94.1381
157347,3LG,0,0.982957,-32.1462,0.982952,-152.1473,0.982965,87.854,67006.8665,-92.719,67002.1758,147.2784,67005.487,27.2868
157347,3LG,10,1.048975,-30.13,1.048969,-150.1294,1.048983,89.8699,975.0341,142.1123,1005.9394,22.2987,966.4213,-98.2205
157347,3LG,20,1.048977,-30.1071,1.04897,-150.1065,1.048984,89.8928,1351.3138,144.4642,1382.42,24.5621,1342.361,-95.7575
157347,3LG,30,1.048976,-30.0995,1.04897,-150.0988,1.048984,89.9005,1477.42,145.0155,1508.5786,25.0985,1468.3781,-95.183
157347,3LG,40,1.048976,-30.0956,1.048969,-150.095,1.048984,89.9043,1540.5826,145.2634,1571.7659,25.3403,1531.4989,-94.9251
298162,SLG,0,1.024495,-30.8884,1.049541,-150.0299,1.048117,89.9098,24769.497,-92.3943,2686.9544,15.0255,1811.3249,-69.3242
298162,SLG,10,1.049032,-30.1302,1.048945,-150.0821,1.048972,89.9141,978.5901,139.0692,1783.895,26.6393,1692.9689,-93.9546
298162,SLG,20,1.049009,-30.1073,1.048956,-150.0828,1.048977,89.9149,1350.9541,143.2101,1772.7285,26.32,1706.9714,-94.1055
298162,SLG,30,1.048999,-30.0996,1.04896,-150.083,1.048979,89.9152,1476.768,144.2196,1769.041,26.2098,1711.7075,-94.1528
298162,SLG,40,1.048993,-30.0957,1.048962,-150.0831,1.04898,89.9154,1539.9454,144.6798,1767.2058,26.1539,1714.0882,-94.1759
298162,LL,0,1.013852,-31.6574,1.009272,-150.2747,1.048723,89.9422,39475.5466,-83.183,35698.9045,122.5964,2177.7233,-88.4879
298162,LL,10,1.049032,-30.1317,1.049004,-150.1288,1.048949,89.9154,954.9801,138.9293,1019.4766,20.458,1715.0,-93.2804
298162,LL,20,1.049007,-30.1081,1.048992,-150.1061,1.048966,89.9156,1337.7339,143.2725,1390.0257,23.7417,1717.7861,-93.7598
298162,LL,30,1.048997,-30.1001,1.048985,-150.0985,1.048971,89.9157,1467.6623,144.2788,1513.8711,24.5668,1718.8699,-93.9205
298162,LL,40,1.048992,-30.0962,1.048981,-150.0948,1.048974,89.9157,1533.0076,144.7298,1575.8228,24.9467,1719.4419,-94.0009
298162,3LG,0,1.004413,-31.0448,1.004405,-151.0461,1.004417,88.9557,42310.1177,-100.9541,42309.6386,139.0453,42309.7891,19.0466
298162,3LG,10,1.049008,-30.1309,1.049003,-150.1303,1.049016,89.869,964.8844,140.193,995.832,20.3814,956.8068,-100.1428
298162,3LG,20,1.048995,-30.1076,1.048989,-150.1069,1.049003,89.8924,1345.64,143.7227,1376.781,23.8161,1336.9399,-96.4984
298162,3LG,30,1.048989,-30.0998,1.048983,-150.0991,1.048997,89.9002,1473.5496,144.5526,1504.7337,24.6321,1464.6745,-95.6453
298162,3LG,40,1.048986,-30.0959,1.048979,-150.0952,1.048993,89.9041,1537.651,144.9265,1568.8544,25.0008,1528.692,-95.2615
165448,SLG,0,1.026009,-30.8105,1.049539,-150.0294,1.04811,89.9094,22978.6604,-93.5831,2697.0175,15.2437,1801.3993,-68.975
165448,SLG,10,1.049037,-30.1302,1.048942,-150.082,1.048972,89.9139,979.2748,138.792,1784.9684,26.7169,1690.3875,-93.965
165448,SLG,20,1.049012,-30.1073,1.048954,-150.0827,1.048978,89.9149,1351.1951,143.0888,1773.2354,26.3601,1705.6678,-94.112
165448,SLG,30,1.049001,-30.0996,1.048959,-150.083,1.048979,89.9152,1476.9124,144.1414,1769.3718,26.2368,1710.8358,-94.1574
165448,SLG,40,1.048995,-30.0957,1.048961,-150.0831,1.04898,89.9153,1540.0482,144.622,1767.4506,26.1743,1713.4335,-94.1795
165448,LL,0,1.016419,-31.5345,1.011875,-150.2653,1.048718,89.9425,36446.7442,-83.3958,33346.8003,122.4982,2180.2649,-88.2683
165448,LL,10,1.049037,-30.1318,1.049008,-150.1288,1.048947,89.9153,953.927,138.5978,1020.3159,20.2857,1713.5183,-93.2093
165448,LL,20,1.04901,-30.1082,1.048994,-150.1061,1.048965,89.9156,1336.8717,143.1368,1390.5542,23.6651,1716.9845,-93.7249
165448,LL,30,1.048999,-30.1002,1.048986,-150.0985,1.04897,89.9156,1467.0226,144.1928,1514.2516,24.5172,1718.3213,-93.8973
165448,LL,40,1.048993,-30.0962,1.048982,-150.0948,1.048973,89.9157,1532.5043,144.6667,1576.1193,24.91,1719.0252,-93.9837
165448,3LG,0,1.007574,-30.9775,1.007566,-150.9788,1.007577,89.023,39272.126,-101.0356,39271.6835,138.9638,39271.8287,18.9651
165448,3LG,10,1.049012,-30.131,1.049007,-150.1304,1.04902,89.8689,963.947,139.9765,994.9186,20.1649,955.9318,-100.3586
165448,3LG,20,1.048997,-30.1076,1.048991,-150.107,1.049005,89.8923,1345.0478,143.6343,1376.2017,23.7272,1336.378,-96.5864
165448,3LG,30,1.04899,-30.0998,1.048984,-150.0991,1.048998,89.9001,1473.1321,144.4965,1504.3255,24.5757,1464.2773,-95.7011
165448,3LG,40,1.048987,-30.0959,1.04898,-150.0952,1.048995,89.9041,1537.33,144.8854,1568.5406,24.9593,1528.3862,-95.3024
165449,SLG,0,1.03479,-30.4311,1.049595,-150.0249,1.048015,89.9095,13288.7455,-102.244,2793.2015,15.2845,1807.1055,-65.9906
165449,SLG,10,1.04909,-30.1303,1.048915,-150.0812,1.048973,89.9123,988.3098,136.0477,1796.5378,27.5198,1663.3911,-94.071
165449,SLG,20,1.049044,-30.1073,1.048941,-150.0824,1.048979,89.914,1355.2348,141.8818,1778.4756,26.7785,1692.0734,-94.1842
165449,SLG,30,1.049023,-30.0996,1.048949,-150.0827,1.04898,89.9146,1479.5885,143.3623,1772.7404,26.5193,1701.7567,-94.2098
165449,SLG,40,1.049012,-30.0957,1.048954,-150.0829,1.048981,89.9149,1542.0552,144.0462,1769.9274,26.3875,1706.6188,-94.2203
165449,LL,0,1.029855,-30.9118,1.026139,-150.183,1.048696,89.947,20763.4543,-85.243,20460.4307,120.1162,2243.1233,-87.262
165449,LL,10,1.049093,-30.1331,1.049044,-150.1285,1.048921,89.9145,945.4676,135.325,1031.6661,18.5423,1698.4916,-92.4472
165449,LL,20,1.049043,-30.1089,1.049015,-150.1058,1.048952,89.9151,1329.5894,141.781,1397.6955,22.9072,1708.5908,-93.3578
165449,LL,30,1.049023,-30.1007,1.049001,-150.0983,1.048962,89.9153,1461.6083,143.3295,1519.3863,24.0302,1712.5279,-93.6561
165449,LL,40,1.049011,-30.0965,1.048994,-150.0946,1.048967,89.9154,1528.2463,144.0325,1580.1168,24.551,1714.6064,-93.8041
165449,3LG,0,1.024184,-30.6086,1.024176,-150.6098,1.024187,89.392,23220.0362,-102.6591,23219.9838,137.3411,23219.8641,17.3416
165449,3LG,10,1.049049,-30.1319,1.049046,-150.1312,1.049056,89.8681,957.2191,137.8449,988.5362,18.0307,949.8461,-102.4769
165449,3LG,20,1.049019,-30.1081,1.049014,-150.1074,1.049026,89.8919,1340.6104,142.7622,1371.9602,22.8497,1332.2457,-97.4519
165449,3LG,30,1.049006,-30.1001,1.049,-150.0994,1.049013,89.8999,1469.9933,143.9431,1501.3231,24.0184,1461.3399,-96.2502
165449,3LG,40,1.048999,-30.0961,1.048992,-150.0954,1.049006,89.9039,1534.9144,144.4795,1566.2292,24.5505,1526.1207,-95.7051
287274,SLG,0,1.038916,-30.3892,1.049511,-150.0255,1.04807,89.9059,9537.2084,-99.3685,2774.4839,16.9147,1725.0404,-66.376
287274,SLG,10,1.04912,-30.1311,1.048897,-150.0806,1.048972,89.9112,983.1839,134.3351,1806.2003,28.0491,1644.5043,-94.0904
287274,SLG,20,1.049064,-30.1077,1.048931,-150.0821,1.048979,89.9135,1351.1641,141.0884,1782.8025,27.0646,1682.3944,-94.2154
287274,SLG,30,1.049038,-30.0998,1.048943,-150.0826,1.04898,89.9142,1476.5901,142.8425,1775.4951,26.7148,1695.2598,-94.2354
287274,SLG,40,1.049023,-30.0959,1.048949,-150.0828,1.048981,89.9146,1539.705,143.6592,1771.9415,26.536,1701.7308,-94.2414
287274,LL,0,1.037456,-30.7813,1.032441,-150.3297,1.048698,89.9466,14111.5612,-76.2709,14936.8436,129.2161,2236.2356,-87.0708
287274,LL,10,1.049123,-30.1346,1.049065,-150.1289,1.048902,89.914,929.2048,133.3141,1028.6429,17.4284,1689.9196,-91.8685
287274,LL,20,1.049063,-30.1098,1.049028,-150.106,1.048942,89.9148,1317.7308,140.9032,1395.997,22.4075,1703.2696,-93.0805
287274,LL,30,1.049037,-30.1013,1.04901,-150.0984,1.048956,89.9151,1452.94,142.7617,1518.2549,23.7065,1708.7493,-93.4747
287274,LL,40,1.049023,-30.097,1.049001,-150.0947,1.048962,89.9153,1521.4672,143.6121,1579.2732,24.3114,1711.6856,-93.6694
287274,3LG,0,1.032568,-30.6362,1.03256,-150.6375,1.032571,89.3643,16358.1906,-93.1635,16358.7458,146.8378,16358.1605,26.8374
287274,3LG,10,1.049068,-30.133,1.049066,-150.1323,1.049075,89.867,943.061,136.5652,974.2991,16.7433,936.1687,-103.7436
287274,3LG,20,1.049032,-30.1087,1.049027,-150.1081,1.049039,89.8913,1331.1704,142.2112,1362.4992,22.2939,1323.0499,-97.9965
287274,3LG,30,1.049015,-30.1006,1.049009,-150.0999,1.049022,89.8994,1463.2053,143.5878,1494.5269,23.66,1454.7143,-96.6013
287274,3LG,40,1.049006,-30.0965,1.049,-150.0958,1.049013,89.9035,1529.641,144.2169,1560.9519,24.2856,1520.969,-95.9646
283954,SLG,0,1.040359,-30.3328,1.049553,-150.0245,1.048036,89.9073,8005.1164,-102.3265,2801.832,16.3481,1754.1078,-65.6341
283954,SLG,10,1.049151,-30.1313,1.048881,-150.0802,1.048973,89.9102,988.2655,132.7239,1813.5831,28.5219,1628.2241,-94.1553
283954,SLG,20,1.049083,-30.1077,1.048923,-150.0819,1.04898,89.913,1353.8408,140.3699,1785.7936,27.3189,1674.2229,-94.2704
283954,SLG,30,1.049051,-30.0998,1.048937,-150.0824,1.048981,89.9139,1478.4797,142.3773,1777.319,26.888,1689.817,-94.2769
283954,SLG,40,1.049034,-30.0959,1.048945,-150.0827,1.048982,89.9144,1541.1706,143.315,1773.2439,26.6672,1697.6522,-94.2743
283954,LL,0,1.039233,-30.6757,1.03484,-150.2921,1.048705,89.9488,11764.8364,-76.9406,12708.3177,127.9983,2271.3848,-87.1893
283954,LL,10,1.049154,-30.1354,1.049088,-150.1288,1.048886,89.9136,924.7832,131.4275,1035.9715,16.2999,1681.5336,-91.3773
283954,LL,20,1.049083,-30.1102,1.049041,-150.1058,1.048935,89.9145,1313.8526,140.0891,1400.5582,21.9394,1698.0584,-92.8556
283954,LL,30,1.049051,-30.1016,1.049019,-150.0983,1.048951,89.9149,1450.094,142.2378,1521.5351,23.4107,1705.0622,-93.3304
283954,LL,40,1.049034,-30.0972,1.049008,-150.0946,1.048959,89.9151,1519.2476,143.2253,1581.8271,24.0952,1708.843,-93.5634
283954,3LG,0,1.035011,-30.5542,1.035002,-150.5556,1.035014,89.4463,13796.4678,-93.9914,13797.3817,146.0117,13796.2863,26.0091
283954,3LG,10,1.04909,-30.1335,1.049088,-150.1328,1.049096,89.8666,940.3037,135.2893,971.8896,15.4698,933.8088,-104.9958
283954,3LG,20,1.049045,-30.109,1.04904,-150.1083,1.049052,89.891,1328.9403,141.68,1360.4751,21.7615,1321.0057,-98.5182
283954,3LG,30,1.049024,-30.1007,1.049019,-150.1,1.049031,89.8993,1461.5811,143.249,1493.0453,23.3203,1453.2103,-96.9341
283954,3LG,40,1.049013,-30.0966,1.049007,-150.0959,1.04902,89.9034,1528.3764,143.9678,1559.7964,24.0358,1519.7929,-96.2092
283956,SLG,0,1.04218,-30.3757,1.049327,-150.0308,1.048245,89.9007,6744.1613,-92.3289,2661.0378,20.0769,1580.761,-70.1098
283956,SLG,10,1.049144,-30.1305,1.048883,-150.0802,1.048973,89.9103,999.5684,133.2802,1812.8748,28.4709,1629.9461,-94.1439
283956,SLG,20,1.049081,-30.1075,1.048923,-150.0819,1.04898,89.913,1356.9139,140.4705,1785.6694,27.3044,1674.6661,-94.2659
283956,SLG,30,1.04905,-30.0997,1.048938,-150.0824,1.048981,89.9139,1479.8847,142.4186,1777.272,26.8812,1690.0178,-94.2746
283956,SLG,40,1.049033,-30.0958,1.048945,-150.0827,1.048982,89.9144,1541.9777,143.3374,1773.2203,26.6632,1697.7671,-94.2728
283956,LL,0,1.042196,-30.6574,1.037631,-150.3796,1.048696,89.9412,9748.0349,-67.4153,10542.6753,137.611,2147.7197,-86.7559
283956,LL,10,1.049151,-30.1345,1.04908,-150.1282,1.048888,89.9136,937.236,131.8272,1043.7992,16.8478,1682.7658,-91.4397
283956,LL,20,1.049082,-30.11,1.049039,-150.1057,1.048935,89.9145,1317.3384,140.1561,1402.5734,22.0395,1698.4637,-92.8702
283956,LL,30,1.049051,-30.1015,1.049018,-150.0982,1.048951,89.9149,1451.7046,142.2651,1522.4437,23.4515,1705.2587,-93.3366
283956,LL,40,1.049033,-30.0972,1.049007,-150.0945,1.048959,89.9151,1520.1775,143.2402,1582.3479,24.1172,1708.9595,-93.5669
283956,3LG,0,1.038436,-30.5908,1.03843,-150.5921,1.038439,89.4097,11437.8908,-84.4447,11437.2559,155.5669,11438.7168,35.5588
283956,3LG,10,1.049086,-30.1328,1.049084,-150.1322,1.049092,89.8672,949.3213,135.6756,980.8886,15.8469,942.744,-104.6084
283956,3LG,20,1.049043,-30.1088,1.049039,-150.1081,1.04905,89.8912,1331.4335,141.7449,1362.9532,21.8256,1323.4786,-98.4532
283956,3LG,30,1.049024,-30.1006,1.049018,-150.1,1.049031,89.8993,1462.7323,143.2752,1494.1895,23.3462,1454.3528,-96.9079
283956,3LG,40,1.049012,-30.0965,1.049007,-150.0959,1.04902,89.9034,1529.0433,143.9818,1560.459,24.0497,1520.455,-96.1951
189963,SLG,0,1.042922,-30.2965,1.049607,-150.0172,1.047915,89.9063,5617.5919,-101.032,2937.706,16.1227,1782.8389,-62.0093
189963,SLG,10,1.049231,-30.1373,1.048829,-150.0779,1.048963,89.9066,919.9939,126.4522,1851.0844,30.0335,1568.2012,-93.9955
189963,SLG,20,1.049138,-30.1107,1.048894,-150.0809,1.048978,89.9111,1315.4447,137.8087,1801.7498,28.1881,1643.2183,-94.3067
189963,SLG,30,1.049092,-30.1018,1.048917,-150.0818,1.048981,89.9127,1452.3549,140.7452,1787.2155,27.4914,1668.9997,-94.3265
189963,SLG,40,1.049065,-30.0973,1.048929,-150.0822,1.048982,89.9134,1521.4251,142.1148,1780.3708,27.1284,1681.9953,-94.3209
189963,LL,0,1.043994,-30.5366,1.039637,-150.3542,1.048706,89.9563,7190.5614,-66.8133,8694.7029,138.5444,2395.4036,-87.1743
189963,LL,10,1.049217,-30.1435,1.049154,-150.1332,1.048819,89.9125,821.8607,124.514,982.3324,11.8568,1663.4966,-89.3059
189963,LL,20,1.049135,-30.1146,1.04908,-150.1079,1.048903,89.9137,1250.7222,137.3553,1372.7941,20.2784,1683.3605,-91.8912
189963,LL,30,1.049091,-30.1046,1.049046,-150.0996,1.04893,89.9143,1405.8974,140.4996,1503.0221,22.3881,1694.0694,-92.7113
189963,LL,40,1.049065,-30.0995,1.049028,-150.0955,1.048943,89.9147,1485.3647,141.9474,1567.9528,23.3566,1700.1651,-93.1091
189963,3LG,0,1.040841,-30.5141,1.040833,-150.5154,1.040847,89.4865,8950.6698,-82.9382,8950.9601,157.065,8947.1936,37.0632
189963,3LG,10,1.049134,-30.1398,1.049134,-150.1391,1.049138,89.8605,852.3414,130.8401,884.2599,11.0794,848.4442,-109.314
189963,3LG,20,1.049077,-30.1125,1.049073,-150.1118,1.049082,89.8876,1276.5015,139.9903,1308.3538,20.08,1269.8821,-100.1552
189963,3LG,30,1.049048,-30.1031,1.049043,-150.1024,1.049054,89.8969,1424.9327,142.1852,1456.6333,22.261,1417.427,-97.9645
189963,3LG,40,1.049031,-30.0984,1.049026,-150.0977,1.049038,89.9016,1500.2733,143.189,1531.8788,23.2602,1492.3324,-96.9635
181977,SLG,0,1.043848,-30.2841,1.049545,-150.0205,1.047998,89.9052,4759.9392,-100.1259,2871.9971,16.9634,1731.014,-63.8701
181977,SLG,10,1.049246,-30.1372,1.048818,-150.0774,1.048962,89.9059,927.9223,125.7546,1858.1326,30.3348,1556.3363,-93.9833
181977,SLG,20,1.049151,-30.1106,1.048887,-150.0807,1.048979,89.9107,1319.1048,137.3339,1804.3804,28.3803,1636.8058,-94.343
181977,SLG,30,1.049101,-30.1017,1.048913,-150.0817,1.048982,89.9124,1454.7658,140.4118,1788.7076,27.6281,1664.6557,-94.3602
181977,SLG,40,1.049073,-30.0973,1.048926,-150.0821,1.048982,89.9132,1523.2323,141.8593,1781.3831,27.2341,1678.7172,-94.3497
181977,LL,0,1.045034,-30.487,1.041125,-150.3435,1.048721,89.9539,5982.1977,-64.336,7369.413,140.5291,2354.7105,-87.4273
181977,LL,10,1.04923,-30.1436,1.049168,-150.1329,1.048805,89.9123,825.5873,123.7479,991.944,11.2401,1660.6331,-88.8838
181977,LL,20,1.049147,-30.1148,1.049089,-150.1077,1.048896,89.9135,1250.0527,136.8122,1377.8255,19.9509,1679.8152,-91.6953
181977,LL,30,1.0491,-30.1048,1.049053,-150.0995,1.048926,89.9142,1404.9082,140.1173,1506.4385,22.1721,1691.2548,-92.5885
181977,LL,40,1.049073,-30.0997,1.049033,-150.0954,1.04894,89.9145,1484.4293,141.6541,1570.5377,23.1961,1697.892,-93.0205
181977,3LG,0,1.042307,-30.4767,1.042301,-150.4779,1.042315,89.524,7532.6709,-80.6324,7531.4437,159.3715,7527.661,39.3686
181977,3LG,10,1.049145,-30.1397,1.049146,-150.139,1.049149,89.8606,857.8808,130.2513,890.1303,10.4964,854.0985,-109.8781
181977,3LG,20,1.049085,-30.1125,1.049082,-150.1118,1.049091,89.8876,1277.0927,139.6296,1309.1599,19.7243,1270.516,-100.5056
181977,3LG,30,1.049055,-30.1032,1.04905,-150.1025,1.04906,89.8968,1424.8275,141.9368,1456.6789,22.0162,1417.3412,-98.2063
181977,3LG,40,1.049037,-30.0985,1.049032,-150.0978,1.049043,89.9015,1500.0069,143.0001,1531.7275,23.0741,1492.0764,-97.1476
181924,SLG,0,1.043772,-30.2405,1.049768,-150.0178,1.047857,89.9143,4640.9161,-108.8505,2967.5097,13.4063,1921.9781,-62.3856
181924,SLG,10,1.049314,-30.1392,1.048784,-150.0764,1.048961,89.9038,926.2294,121.3857,1876.5868,31.2891,1520.672,-94.0727
181924,SLG,20,1.049191,-30.111,1.048869,-150.0803,1.048982,89.9097,1321.1264,135.7383,1810.2703,28.9011,1620.0217,-94.4799
181924,SLG,30,1.049129,-30.1018,1.048901,-150.0815,1.048984,89.9117,1457.2011,139.436,1791.8435,27.9807,1653.7913,-94.4681
181924,SLG,40,1.049094,-30.0973,1.048917,-150.082,1.048984,89.9128,1525.5097,141.1567,1783.436,27.4997,1670.7028,-94.4362
181924,LL,0,1.044602,-30.4659,1.040808,-150.2949,1.048815,89.9606,5938.3328,-69.3557,7415.2468,133.9343,2462.3614,-89.4796
181924,LL,10,1.049282,-30.1468,1.049233,-150.1336,1.048765,89.9114,801.34,118.997,1002.3779,7.883,1647.1904,-87.5965
181924,LL,20,1.049185,-30.1161,1.049119,-150.1075,1.04888,89.9129,1238.2169,135.0332,1385.701,18.8806,1668.9461,-91.1892
181924,LL,30,1.049128,-30.1055,1.049072,-150.0993,1.048916,89.9137,1397.7339,139.0147,1512.3428,21.5539,1683.3775,-92.2883
181924,LL,40,1.049095,-30.1001,1.049047,-150.0952,1.048933,89.9142,1479.3881,140.8547,1575.1972,22.7645,1691.7936,-92.8098
181924,3LG,0,1.04179,-30.4401,1.041782,-150.4413,1.041797,89.5606,7555.4686,-86.4316,7554.6362,153.5657,7550.6266,33.5608
181924,3LG,10,1.04919,-30.1415,1.049191,-150.1407,1.049193,89.8588,845.0196,126.9553,878.197,7.3432,841.4032,-113.0961
181924,3LG,20,1.049112,-30.1132,1.049109,-150.1125,1.049116,89.8869,1270.3605,138.4642,1302.9693,18.6003,1263.7448,-101.644
181924,3LG,30,1.049073,-30.1036,1.049068,-150.1029,1.049078,89.8964,1420.5851,141.2243,1452.7884,21.3281,1413.0353,-98.9028
181924,3LG,40,1.049051,-30.0988,1.049046,-150.098,1.049057,89.9012,1496.9477,142.4863,1528.9264,22.5778,1488.9548,-97.65
181993,SLG,0,1.044117,-30.2277,1.04978,-150.0195,1.047881,89.9158,4298.1141,-110.8339,2944.2259,13.0614,1932.7281,-63.2513
181993,SLG,10,1.049333,-30.1397,1.048771,-150.0759,1.04896,89.9029,927.1981,120.1907,1884.4953,31.6381,1506.8864,-94.0768
181993,SLG,20,1.049204,-30.1111,1.048862,-150.0802,1.048983,89.9093,1323.064,135.2011,1812.6345,29.1091,1613.298,-94.5363
181993,SLG,30,1.049139,-30.1018,1.048896,-150.0814,1.048985,89.9115,1458.9418,139.0878,1793.0163,28.1245,1649.4093,-94.516
181993,SLG,40,1.049102,-30.0973,1.048913,-150.0819,1.048985,89.9126,1526.9983,140.8991,1784.1598,27.6091,1667.4622,-94.4758
181993,LL,0,1.044812,-30.4428,1.041287,-150.277,1.048841,89.9602,5526.0193,-70.3511,6929.1413,132.4082,2456.121,-90.0108
181993,LL,10,1.049295,-30.1477,1.049252,-150.1337,1.048749,89.9112,795.5799,117.7164,1006.8644,6.9158,1644.0079,-87.0756
181993,LL,20,1.049198,-30.1165,1.049129,-150.1074,1.048873,89.9126,1235.1795,134.4159,1389.4687,18.5268,1664.787,-90.9805
181993,LL,30,1.049138,-30.1057,1.049078,-150.0992,1.048912,89.9135,1395.8651,138.608,1515.1667,21.3415,1680.1758,-92.1662
181993,LL,40,1.049103,-30.1003,1.049052,-150.0951,1.04893,89.914,1478.0709,140.5516,1577.4202,22.6133,1689.2567,-92.725
181993,3LG,0,1.042162,-30.4154,1.042155,-150.4165,1.042169,89.5854,7054.5303,-87.6939,7053.0026,152.2963,7049.2491,32.2938
181993,3LG,10,1.049203,-30.1419,1.049204,-150.1411,1.049205,89.8584,843.1757,126.0434,876.6211,6.487,839.4713,-113.9789
181993,3LG,20,1.049121,-30.1134,1.049118,-150.1127,1.049125,89.8867,1268.9874,138.0664,1301.7697,18.2224,1262.2738,-102.0312
181993,3LG,30,1.04908,-30.1037,1.049075,-150.103,1.049085,89.8963,1419.6413,140.9667,1451.9571,21.0828,1412.0093,-99.1541
181993,3LG,40,1.049056,-30.0988,1.049051,-150.0981,1.049062,89.9012,1496.2375,142.2956,1528.2983,22.3958,1488.1766,-97.8364
181994,SLG,0,1.044484,-30.2194,1.049763,-150.0212,1.047918,89.9159,3951.0597,-112.0486,2912.4064,13.1871,1918.4868,-64.1638
181994,SLG,10,1.049347,-30.1404,1.04876,-150.0754,1.048958,89.9022,924.2605,119.1182,1892.515,31.9464,1494.0792,-94.0523
181994,SLG,20,1.049217,-30.1113,1.048855,-150.08,1.048984,89.9089,1322.9507,134.6829,1815.0336,29.3055,1606.8635,-94.5862
181994,SLG,30,1.049148,-30.1019,1.048891,-150.0813,1.048986,89.9112,1459.289,138.7454,1794.1879,28.2622,1645.1914,-94.5613
181994,SLG,40,1.049109,-30.0973,1.04891,-150.0819,1.048986,89.9124,1527.4332,140.6435,1784.8701,27.7145,1664.3368,-94.514
181994,LL,0,1.045113,-30.4188,1.041867,-150.2644,1.048854,89.9593,5050.4864,-70.9404,6375.7144,131.576,2441.1535,-90.2724
181994,LL,10,1.049304,-30.1486,1.049268,-150.1341,1.048733,89.9111,787.4158,116.6012,1006.7815,6.0048,1642.396,-86.5799
181994,LL,20,1.04921,-30.117,1.049139,-150.1074,1.048866,89.9124,1230.5697,133.8234,1391.0145,18.1736,1661.0229,-90.7756
181994,LL,30,1.049148,-30.106,1.049085,-150.0991,1.048908,89.9134,1392.8579,138.2091,1516.5109,21.1257,1677.1529,-92.0467
181994,LL,40,1.049111,-30.1005,1.049056,-150.0951,1.048927,89.9139,1475.8677,140.2515,1578.5308,22.4585,1686.8254,-92.6424
181994,3LG,0,1.042663,-30.3927,1.042656,-150.3937,1.04267,89.6081,6475.7245,-88.373,6473.0271,151.6062,6469.901,31.6094
181994,3LG,10,1.049213,-30.1425,1.049214,-150.1417,1.049214,89.8578,838.5498,125.2056,872.2511,5.7036,834.7956,-114.7866
181994,3LG,20,1.04913,-30.1137,1.049126,-150.113,1.049133,89.8864,1265.9212,137.675,1298.8766,17.8509,1259.1278,-102.4114
181994,3LG,30,1.049087,-30.1039,1.049082,-150.1032,1.049091,89.8961,1417.4877,140.7083,1449.9166,20.8368,1409.7847,-99.4059
181994,3LG,40,1.049062,-30.099,1.049056,-150.0983,1.049067,89.901,1494.5892,142.1025,1526.7324,22.2118,1486.468,-98.0248
181891,SLG,0,1.045123,-30.2271,1.049617,-150.0259,1.04806,89.9116,3399.0355,-108.637,2802.2447,15.3203,1799.9594,-66.8245
181891,SLG,10,1.049319,-30.1392,1.048772,-150.0755,1.048953,89.9028,928.2511,121.0989,1891.3836,31.6142,1503.4789,-93.8421
181891,SLG,20,1.049207,-30.1111,1.04886,-150.08,1.048981,89.9091,1324.4896,135.1041,1815.4757,29.1773,1609.9264,-94.4922
181891,SLG,30,1.049143,-30.1018,1.048894,-150.0813,1.048985,89.9113,1460.029,138.9427,1794.5994,28.1873,1646.9009,-94.5047
181891,SLG,40,1.049106,-30.0973,1.048912,-150.0819,1.048985,89.9124,1527.8766,140.764,1785.2052,27.6625,1665.5017,-94.4742
181891,LL,0,1.045852,-30.3966,1.042877,-150.2707,1.04883,89.9537,4346.1948,-67.4862,5507.4896,134.478,2348.5189,-89.7444
181891,LL,10,1.049284,-30.1466,1.049244,-150.1337,1.048743,89.9117,804.7422,119.0206,1004.3961,7.2616,1652.7145,-86.92
181891,LL,20,1.0492,-30.1164,1.049133,-150.1074,1.048869,89.9127,1236.4228,134.3459,1390.8174,18.3877,1665.4206,-90.8442
181891,LL,30,1.049142,-30.1058,1.049082,-150.0991,1.048909,89.9135,1395.9207,138.4625,1516.5947,21.2132,1679.7068,-92.0767
181891,LL,40,1.049107,-30.1004,1.049055,-150.0951,1.048928,89.914,1477.8371,140.4104,1578.6805,22.507,1688.5793,-92.6602
181891,3LG,0,1.043684,-30.3804,1.04368,-150.3813,1.043692,89.6204,5593.4138,-85.2155,5587.8498,154.7547,5587.0357,34.7688
181891,3LG,10,1.049199,-30.1413,1.049199,-150.1405,1.049201,89.859,850.4415,126.554,883.7752,6.9786,846.536,-113.5016
181891,3LG,20,1.049124,-30.1134,1.049121,-150.1126,1.049128,89.8867,1270.7606,137.9558,1303.5591,18.1164,1263.9306,-102.1491
181891,3LG,30,1.049083,-30.1037,1.049079,-150.103,1.049089,89.8963,1420.2669,140.843,1452.6096,20.9634,1412.5478,-99.2816
181891,3LG,40,1.04906,-30.0988,1.049054,-150.0981,1.049065,89.9011,1496.4904,142.1866,1528.5762,22.2904,1488.3596,-97.948
255335,SLG,0,1.045095,-30.2147,1.049701,-150.0232,1.04798,89.914,3392.2162,-112.1013,2866.2291,14.0848,1865.7957,-65.2699
255335,SLG,10,1.049364,-30.142,1.048742,-150.0745,1.048952,89.9009,909.6307,117.4487,1909.1886,32.4224,1471.7243,-93.8867
255335,SLG,20,1.049237,-30.112,1.048843,-150.0797,1.048984,89.9082,1316.7475,133.7967,1820.7551,29.6485,1594.7737,-94.6319
255335,SLG,30,1.049164,-30.1023,1.048883,-150.0811,1.048987,89.9107,1455.6383,138.1458,1797.2074,28.5102,1637.1126,-94.6183
255335,SLG,40,1.049122,-30.0976,1.048903,-150.0818,1.048987,89.912,1524.912,140.1911,1786.8117,27.9068,1658.2967,-94.5662
255335,LL,0,1.04585,-30.3823,1.042954,-150.2602,1.048855,89.9577,4164.3035,-69.4984,5401.6762,132.8874,2414.1775,-90.2684
255335,LL,10,1.049309,-30.1505,1.049289,-150.1353,1.048705,89.9111,764.2774,115.0221,997.9195,4.5452,1643.9639,-85.6821
255335,LL,20,1.049228,-30.1182,1.049154,-150.1078,1.048853,89.9121,1216.0862,132.8482,1388.6868,17.5667,1655.4444,-90.3649
255335,LL,30,1.049163,-30.1068,1.049095,-150.0993,1.0489,89.9131,1382.8575,137.5313,1515.3514,20.7498,1672.2253,-91.8012
255335,LL,40,1.049124,-30.1011,1.049064,-150.0952,1.048922,89.9137,1468.292,139.7345,1577.7762,22.1873,1682.7313,-92.4708
255335,3LG,0,1.043742,-30.3668,1.043738,-150.3677,1.043751,89.634,5427.057,-86.8482,5420.9706,153.1098,5420.0981,33.1276
255335,3LG,10,1.049223,-30.1437,1.049223,-150.1429,1.049223,89.8566,823.2872,124.0323,857.5173,4.6132,819.6079,-115.9067
255335,3LG,20,1.049142,-30.1145,1.049138,-150.1137,1.049145,89.8856,1255.295,137.0553,1288.6007,17.2638,1248.4371,-103.0103
255335,3LG,30,1.049096,-30.1045,1.049091,-150.1037,1.049101,89.8955,1409.7796,140.2863,1442.4382,20.4354,1401.998,-99.8155
255335,3LG,40,1.04907,-30.0994,1.049064,-150.0987,1.049075,89.9006,1488.5832,141.7826,1520.8945,21.9069,1480.3892,-98.3361
182030,SLG,0,1.045262,-30.2181,1.049656,-150.0238,1.04801,89.9122,3250.6568,-110.7799,2846.1292,14.8365,1827.0271,-65.6569
182030,SLG,10,1.049357,-30.1416,1.048744,-150.0745,1.048951,89.901,911.7769,118.0139,1908.589,32.3563,1473.8233,-93.8555
182030,SLG,20,1.049234,-30.1119,1.048844,-150.0797,1.048983,89.9082,1317.3883,133.8973,1820.7694,29.6298,1595.2473,-94.6196
182030,SLG,30,1.049163,-30.1023,1.048883,-150.0811,1.048987,89.9107,1455.9165,138.1866,1797.241,28.5018,1637.311,-94.6123
182030,SLG,40,1.049121,-30.0976,1.048903,-150.0818,1.048987,89.912,1525.065,140.2131,1786.8385,27.9021,1658.4046,-94.5628
182030,LL,0,1.046059,-30.3737,1.043282,-150.2625,1.048838,89.9566,3935.0598,-68.7188,5121.5763,134.0257,2396.6698,-89.8967
182030,LL,10,1.049304,-30.15,1.049281,-150.135,1.048707,89.9112,768.3769,115.6307,998.7655,5.0088,1645.4882,-85.7687
182030,LL,20,1.049226,-30.1181,1.049152,-150.1077,1.048854,89.9121,1217.337,132.9567,1388.9097,17.642,1656.0668,-90.3787
182030,LL,30,1.049162,-30.1068,1.049094,-150.0993,1.0489,89.9131,1383.418,137.5755,1515.4469,20.7791,1672.522,-91.8058
182030,LL,40,1.049123,-30.1011,1.049064,-150.0952,1.048922,89.9137,1468.6062,139.7584,1577.8292,22.2028,1682.9018,-92.473
182030,3LG,0,1.044068,-30.3618,1.044064,-150.3626,1.044076,89.6391,5136.6572,-85.8494,5129.3576,154.104,5129.3418,34.1259
182030,3LG,10,1.049218,-30.1434,1.049218,-150.1426,1.049218,89.8569,826.2056,124.4814,860.3981,5.044,822.5021,-115.4631
182030,3LG,20,1.04914,-30.1145,1.049136,-150.1137,1.049143,89.8856,1256.2312,137.1319,1289.5192,17.3382,1249.3728,-102.9346
182030,3LG,30,1.049096,-30.1044,1.04909,-150.1037,1.0491,89.8956,1410.2116,140.3173,1442.8626,20.4655,1402.431,-99.7849
182030,3LG,40,1.049069,-30.0994,1.049064,-150.0987,1.049075,89.9006,1488.8296,141.7993,1521.1367,21.9231,1480.6365,-98.3196
182153,SLG,0,1.046036,-30.2137,1.049583,-150.0245,1.048056,89.9095,2547.3031,-109.9628,2820.2769,16.0875,1767.9756,-66.2398
182153,SLG,10,1.049377,-30.1484,1.048707,-150.071,1.048911,89.8994,830.0236,112.7095,1968.9507,33.2732,1444.8548,-92.4989
182153,SLG,20,1.049277,-30.1153,1.048814,-150.0784,1.048978,89.9062,1275.194,131.5017,1841.8592,30.4885,1561.0892,-94.5529
182153,SLG,30,1.049199,-30.1045,1.048861,-150.0804,1.048986,89.9093,1428.2204,136.5877,1809.1947,29.1498,1613.994,-94.654
182153,SLG,40,1.049151,-30.0992,1.048886,-150.0813,1.048988,89.9109,1504.6078,139.0125,1794.8971,28.4138,1640.8071,-94.6254
182153,LL,0,1.047241,-30.3304,1.044703,-150.2696,1.048845,89.9553,2739.54,-60.7488,3924.2932,140.1307,2375.2484,-90.0203
182153,LL,10,1.049294,-30.1543,1.049326,-150.141,1.048639,89.9125,704.8661,112.9393,930.2811,0.078,1673.621,-83.7023
182153,LL,20,1.049254,-30.1227,1.04919,-150.11,1.048813,89.9116,1152.9847,130.5545,1360.564,15.8622,1647.1275,-89.0978
182153,LL,30,1.049193,-30.11,1.049121,-150.1007,1.048874,89.9125,1337.9267,135.8881,1497.3834,19.7219,1662.133,-91.0166
182153,LL,40,1.049151,-30.1035,1.049084,-150.0962,1.048903,89.9132,1433.7133,138.4654,1564.4842,21.4573,1673.6156,-91.9154
182153,3LG,0,1.045628,-30.34,1.04563,-150.3404,1.045637,89.6609,3801.3965,-78.4797,3785.5831,161.4513,3793.2985,41.5004
182153,3LG,10,1.049227,-30.1485,1.049228,-150.1475,1.049226,89.852,755.9562,121.12,791.4749,1.8556,753.5535,-118.6858
182153,3LG,20,1.049162,-30.1178,1.049158,-150.1169,1.049163,89.8823,1207.0562,135.614,1241.3863,15.8829,1200.6119,-104.3915
182153,3LG,30,1.049115,-30.1068,1.049109,-150.106,1.049118,89.8932,1374.3324,139.3029,1407.6784,19.492,1366.7052,-100.7621
182153,3LG,40,1.049086,-30.1013,1.04908,-150.1005,1.04909,89.8987,1460.7672,141.0348,1493.5825,21.1889,1452.6399,-99.0579
182158,SLG,0,1.046284,-30.2081,1.049566,-150.0257,1.048084,89.9095,2311.4328,-111.2863,2796.8563,16.2987,1757.3008,-66.9835
182158,SLG,10,1.049379,-30.1505,1.048697,-150.0696,1.048893,89.8991,804.2851,111.0653,1993.1656,33.5174,1438.8144,-91.8413
182158,SLG,20,1.049292,-30.1164,1.048803,-150.0779,1.048976,89.9054,1263.5908,130.6641,1850.0555,30.7935,1548.4745,-94.5129
182158,SLG,30,1.049212,-30.1051,1.048853,-150.0801,1.048986,89.9088,1421.1,136.0118,1813.6896,29.3877,1605.3443,-94.6692
182158,SLG,40,1.049162,-30.0996,1.04888,-150.0811,1.048988,89.9106,1499.574,138.5749,1797.8383,28.6038,1634.2855,-94.6519
182158,LL,0,1.047478,-30.3149,1.045091,-150.2627,1.048855,89.9543,2410.6257,-59.5505,3556.9145,140.3056,2358.7849,-90.2517
182158,LL,10,1.0493,-30.1528,1.049337,-150.1433,1.048627,89.9137,727.7071,113.8303,903.5366,-1.7018,1694.2036,-83.4139
182158,LL,20,1.049263,-30.1241,1.049205,-150.1106,1.048797,89.9114,1133.6874,129.7583,1353.9564,15.183,1645.1094,-88.6019
182158,LL,30,1.049204,-30.111,1.049131,-150.101,1.048864,89.9123,1324.4069,135.2874,1493.7915,19.3182,1658.5992,-90.7116
182158,LL,40,1.049161,-30.1043,1.049092,-150.0964,1.048896,89.913,1423.4455,137.9934,1562.0261,21.174,1670.2317,-91.7025
182158,3LG,0,1.045985,-30.3265,1.045989,-150.3267,1.045994,89.6744,3413.6679,-77.7254,3394.8415,162.1793,3405.6915,42.2511
182158,3LG,10,1.049229,-30.1498,1.049231,-150.1488,1.049228,89.8507,738.0442,120.126,773.875,0.9049,736.0001,-119.6461
182158,3LG,20,1.04917,-30.1188,1.049166,-150.1179,1.049171,89.8814,1193.802,135.0795,1228.4662,15.3693,1187.4339,-104.9064
182158,3LG,30,1.049122,-30.1075,1.049117,-150.1067,1.049125,89.8925,1364.5328,138.9321,1398.1001,19.1359,1356.8951,-101.1208
182158,3LG,40,1.049092,-30.1018,1.049086,-150.101,1.049096,89.8982,1453.0615,140.7508,1486.0353,20.9161,1444.8996,-99.3334
182162,SLG,0,1.04649,-30.2023,1.049556,-150.027,1.048109,89.9098,2114.4099,-113.1264,2774.3581,16.3961,1753.2036,-67.716
182162,SLG,10,1.049379,-30.1526,1.048687,-150.0681,1.048873,89.8988,778.0151,109.445,2018.2699,33.7216,1433.6856,-91.1164
182162,SLG,20,1.049306,-30.1174,1.048792,-150.0774,1.048973,89.9047,1252.2211,129.821,1858.6722,31.0944,1535.6864,-94.4601
182162,SLG,30,1.049225,-30.1057,1.048845,-150.0798,1.048985,89.9083,1414.3324,135.4297,1818.3697,29.6266,1596.552,-94.6812
182162,SLG,40,1.049173,-30.1,1.048873,-150.0809,1.048988,89.9102,1494.8924,138.1323,1800.8681,28.7958,1627.6606,-94.6781
182162,LL,0,1.047659,-30.3017,1.045398,-150.2554,1.048868,89.9534,2141.3065,-58.69,3255.908,139.993,2343.851,-90.5233
182162,LL,10,1.049306,-30.1513,1.049347,-150.1455,1.048616,89.9149,750.3046,114.594,877.4493,-3.4549,1714.8808,-83.1627
182162,LL,20,1.049271,-30.1255,1.049221,-150.1113,1.048781,89.9113,1114.7331,128.9897,1347.7021,14.4675,1643.9021,-88.0875
182162,LL,30,1.049215,-30.112,1.049142,-150.1013,1.048854,89.9121,1311.2069,134.6891,1490.6953,18.8965,1655.2731,-90.3936
182162,LL,40,1.049171,-30.105,1.0491,-150.0966,1.048889,89.9128,1413.4885,137.519,1560.021,20.8803,1666.8908,-91.4816
182162,3LG,0,1.046261,-30.3144,1.046266,-150.3145,1.046269,89.6865,3096.2434,-77.4031,3074.9709,162.4695,3088.5722,42.5689
182162,3LG,10,1.049231,-30.151,1.049234,-150.1501,1.049231,89.8495,721.3342,119.1425,757.4391,-0.0391,719.6731,-120.5996
182162,3LG,20,1.049178,-30.1197,1.049174,-150.1188,1.049178,89.8805,1181.3316,134.5412,1216.3455,14.8516,1175.0561,-105.4244
182162,3LG,30,1.04913,-30.1082,1.049124,-150.1074,1.049132,89.8919,1355.3066,138.5567,1389.1063,18.7756,1347.6589,-101.4835
182162,3LG,40,1.049099,-30.1023,1.049093,-150.1015,1.049102,89.8977,1445.8072,140.4627,1478.9453,20.6397,1437.6079,-99.6126
